<?xml version="1.0" encoding="UTF-8"?>
<!DOCTYPE questestinterop SYSTEM
        "C:\Program Files\Pearson VUE\Compiler\lib\vue\exam\compiler\parsers\pearsonvue_full.dtd">
<questestinterop xmlns="http://www.imsglobal.org/xsd/ims_qtiasiv1p2" xmlns:pearsonvue="http://www.vue.com/schemas">
    <assessment ident="SampleAssessment" title="Paragraphs :: Tab Stops Example">
        <section ident="SampleSection">
            <item ident="SampleItem">
                <presentation>
                    <flow>
                        <material>
                            <mattext>This is the first paragraph...</mattext>
                        </material>
                    </flow>
                    <flow>
                        <material>
                            <mattext>This is the second paragraph...</mattext>
                        </material>
                    </flow>
                </presentation>
            </item>
        </section>
    </assessment>
</questestinterop>